*HEADING
AgnuQuena ABS three-point bending
*NODE
1,10.25,-3.6661649e-16,313.90085
2,10.25,-2.5105259e-15,369.265
3,7.75,-6.7082039,311.0945
4,7.75,-6.7082039,302.1945
5,10.25,-2.5105259e-15,299.38815
6,10.25,-3.513084e-16,276.04015
7,7.75,-6.7082039,273.33113
8,7.75,-6.7082039,263.98647
9,10.25,-2.5105259e-15,261.27745
10,10.25,-3.8804781e-16,252.40245
11,7.75,-6.7082039,249.4461
12,7.75,-6.7082039,241.1961
13,10.25,-2.5105259e-15,238.23975
14,10.25,-2.9566473e-16,219.63991
15,7.75,-6.7082039,217.10538
16,7.75,-6.7082039,206.50302
17,10.25,-2.5105259e-15,203.96849
18,10.25,-2.9566473e-16,188.50651
19,7.75,-6.7082039,185.97198
20,7.75,-6.7082039,175.36962
** ... 20479 like lines cut
*ELEMENT,TYPE=C3D4,ELSET=EALL
1,20277,10344,10357,20265
2,19460,15285,19626,5626
3,13400,12842,4454,4453
4,13400,4454,4455,4453
5,13400,4453,13399,12842
6,4151,18704,4152,15407
7,4152,4153,15407,18693
8,10469,729,373,8438
9,14743,7165,8640,3232
10,4194,4667,3928,19288
11,7910,18259,7092,13774
12,5723,19488,9411,15966
13,15197,4944,9815,4943
14,3654,18382,18071,13569
15,3672,3925,14073,13745
16,7941,17650,7942,8018
17,3620,12977,12976,13568
18,7941,7942,17650,13568
19,3621,7529,3673,17529
20,12173,8365,12172,1915
** ... 61136 like lines cut
*NSET,NSET=LEFT
358,359,360,361,362,363,364,365,366,717,718,719,720,721,722,9891
10463,10464
*NSET,NSET=RIGHT
469,470,471,472,473,474,475,476,477,747,748,749,750,751,752,9909
10480,10481
*NSET,NSET=LOAD
79,95,241,401,634,635,644,645,662,663,837,838,852,853,957,1089
1212,1220,10408,10409,10418,10419,10428,10429,10544,10545,10550,10551,10736,18922,20331,20334
20335,20338,20341,20351,20358,20363,20364,20370
*NSET,NSET=LEFTANCHOR
362
*NSET,NSET=RIGHTANCHOR
473
*MATERIAL,NAME=ABS
*ELASTIC
2000.,0.35
*SOLID SECTION,ELSET=EALL,MATERIAL=ABS

*BOUNDARY
LEFT,1,1,0.
RIGHT,1,1,0.
LEFTANCHOR,2,3,0.
RIGHTANCHOR,2,2,0.
*STEP,NLGEOM
*STATIC
0.02,1.0,1.e-6,0.05
*CLOAD
LOAD,1,1.5
*NODE FILE
U
*EL FILE
S,E
*END STEP
